Version 4
SHEET 1 880 680
WIRE -272 -192 -400 -192
WIRE -176 -192 -272 -192
WIRE -64 -192 -96 -192
WIRE -400 -160 -400 -192
WIRE -784 -112 -784 -176
WIRE -176 -112 -176 -128
WIRE -272 -96 -272 -192
WIRE -208 -96 -272 -96
WIRE -64 -80 -64 -192
WIRE -64 -80 -144 -80
WIRE 0 -80 -64 -80
WIRE -208 -64 -272 -64
WIRE -400 -48 -400 -96
WIRE -176 -32 -176 -48
WIRE -784 0 -784 -32
WIRE -272 16 -272 -64
WIRE -176 16 -272 16
WIRE -64 16 -64 -80
WIRE -64 16 -96 16
WIRE -272 64 -272 16
WIRE -272 192 -272 144
FLAG -400 -48 0
FLAG -272 192 0
FLAG -176 -32 0
FLAG -176 -128 VDD
FLAG -784 0 0
FLAG -784 -176 VDD
SYMBOL res -288 48 R0
SYMATTR InstName R1
SYMATTR Value 10k
SYMBOL res -80 0 R90
WINDOW 0 0 56 VBottom 2
WINDOW 3 32 56 VTop 2
SYMATTR InstName R2
SYMATTR Value 10k
SYMBOL res -80 -208 R90
WINDOW 0 0 56 VBottom 2
WINDOW 3 32 56 VTop 2
SYMATTR InstName R3
SYMATTR Value 100k
SYMBOL cap -416 -160 R0
SYMATTR InstName C1
SYMATTR Value 1µ
SYMBOL Opamps\\UniversalOpamp2 -176 -80 R0
SYMATTR InstName U2
SYMBOL Misc\\battery -784 -128 R0
WINDOW 123 0 0 Left 0
WINDOW 39 0 0 Left 0
SYMATTR InstName V1
SYMATTR Value 3.3
TEXT 176 -16 Left 2 !.tran 10s
