Version 4
SHEET 1 1872 852
WIRE -864 -224 -992 -224
WIRE -768 -224 -864 -224
WIRE -656 -224 -688 -224
WIRE -992 -192 -992 -224
WIRE -768 -144 -768 -160
WIRE -864 -128 -864 -224
WIRE -848 -128 -864 -128
WIRE -800 -128 -816 -128
WIRE -816 -112 -816 -128
WIRE -816 -112 -864 -112
WIRE -656 -112 -656 -224
WIRE -656 -112 -736 -112
WIRE -592 -112 -656 -112
WIRE -848 -96 -848 -128
WIRE -800 -96 -848 -96
WIRE -992 -80 -992 -128
WIRE -768 -64 -768 -80
WIRE -304 -32 -304 -96
WIRE -864 -16 -864 -112
WIRE -768 -16 -864 -16
WIRE -656 -16 -656 -112
WIRE -656 -16 -688 -16
WIRE -864 32 -864 -16
WIRE 448 80 352 80
WIRE 496 80 496 32
WIRE 496 80 448 80
WIRE 544 80 496 80
WIRE 640 80 544 80
WIRE -304 96 -304 48
WIRE 1168 128 1024 128
WIRE 1392 128 1248 128
WIRE 1456 128 1392 128
WIRE 1632 128 1456 128
WIRE 352 144 352 80
WIRE 448 144 448 80
WIRE 544 144 544 80
WIRE 640 144 640 80
WIRE 1024 144 1024 128
WIRE 1632 144 1632 128
WIRE -864 160 -864 112
WIRE 1024 272 1024 224
WIRE 1392 272 1392 128
WIRE 1632 272 1632 208
WIRE -864 304 -992 304
WIRE -768 304 -864 304
WIRE -656 304 -688 304
WIRE 352 320 352 224
WIRE 368 320 352 320
WIRE 448 320 448 224
WIRE 448 320 432 320
WIRE 464 320 448 320
WIRE 544 320 544 224
WIRE 544 320 512 320
WIRE 560 320 544 320
WIRE 640 320 640 224
WIRE 640 320 624 320
WIRE 720 320 640 320
WIRE 816 320 720 320
WIRE 928 320 896 320
WIRE 1328 320 928 320
WIRE -992 336 -992 304
WIRE -768 384 -768 368
WIRE -864 400 -864 304
WIRE -800 400 -864 400
WIRE 464 400 464 320
WIRE 560 400 464 400
WIRE 928 400 928 320
WIRE -656 416 -656 304
WIRE -656 416 -736 416
WIRE -576 416 -656 416
WIRE 352 416 352 320
WIRE 368 416 352 416
WIRE 640 416 640 320
WIRE 640 416 624 416
WIRE -800 432 -864 432
WIRE -992 448 -992 400
WIRE -768 464 -768 448
WIRE 512 464 512 320
WIRE 512 464 432 464
WIRE 560 464 560 400
WIRE 928 496 928 464
WIRE 1392 496 1392 368
WIRE -864 512 -864 432
WIRE -768 512 -864 512
WIRE -656 512 -656 416
WIRE -656 512 -688 512
WIRE -864 560 -864 512
WIRE 368 576 368 512
WIRE 480 576 368 576
WIRE 624 576 624 512
WIRE 624 576 480 576
WIRE 480 640 480 576
WIRE 1392 640 1392 576
WIRE -864 688 -864 640
FLAG -992 -80 0
FLAG -864 160 0
FLAG -992 448 0
FLAG -864 688 0
FLAG 1392 640 0
FLAG 1632 272 0
FLAG 1456 128 OUT
FLAG -768 -64 0
FLAG -768 464 0
FLAG -768 -160 VDD
FLAG -768 368 VDD
FLAG -304 96 0
FLAG -304 -96 VDD
FLAG 1024 272 0
FLAG 496 32 VDD
FLAG 480 640 0
FLAG 720 320 osc_out
FLAG 928 496 0
SYMBOL res -880 16 R0
SYMATTR InstName R1
SYMATTR Value 10k
SYMBOL res -672 -32 R90
WINDOW 0 0 56 VBottom 2
WINDOW 3 32 56 VTop 2
SYMATTR InstName R2
SYMATTR Value 10k
SYMBOL res -672 -240 R90
WINDOW 0 0 56 VBottom 2
WINDOW 3 32 56 VTop 2
SYMATTR InstName R3
SYMATTR Value 420
SYMBOL cap -1008 -192 R0
SYMATTR InstName C1
SYMATTR Value 1µ
SYMBOL res -880 544 R0
SYMATTR InstName R4
SYMATTR Value 10k
SYMBOL res -672 496 R90
WINDOW 0 0 56 VBottom 2
WINDOW 3 32 56 VTop 2
SYMATTR InstName R5
SYMATTR Value 10k
SYMBOL res -672 288 R90
WINDOW 0 0 56 VBottom 2
WINDOW 3 32 56 VTop 2
SYMATTR InstName R6
SYMATTR Value 4k
SYMBOL cap -1008 336 R0
SYMATTR InstName C2
SYMATTR Value 1µ
SYMBOL npn 1328 272 R0
SYMATTR InstName Q1
SYMBOL res 1408 592 R180
WINDOW 0 36 76 Left 2
WINDOW 3 36 40 Left 2
SYMATTR InstName R8
SYMATTR Value 10k
SYMBOL cap 1616 144 R0
SYMATTR InstName C3
SYMATTR Value 5p
SYMBOL Opamps\\UniversalOpamp2 -768 -112 R0
SYMATTR InstName U1
SYMBOL Opamps\\UniversalOpamp2 -768 416 R0
SYMATTR InstName U2
SYMBOL Misc\\battery -304 -48 R0
WINDOW 123 0 0 Left 0
WINDOW 39 0 0 Left 0
SYMATTR InstName V1
SYMATTR Value 3.3
SYMBOL res 1264 112 R90
WINDOW 0 0 56 VBottom 2
WINDOW 3 32 56 VTop 2
SYMATTR InstName R7
SYMATTR Value 10k
SYMBOL Misc\\signal 1024 128 R0
WINDOW 123 0 0 Left 0
WINDOW 39 0 0 Left 0
SYMATTR InstName V3
SYMATTR Value SINE(1.5 1.5 1K)
SYMBOL npn 432 416 M0
SYMATTR InstName Q2
SYMBOL npn 560 416 R0
SYMATTR InstName Q3
SYMBOL cap 432 304 R90
WINDOW 0 0 32 VBottom 2
WINDOW 3 32 32 VTop 2
SYMATTR InstName C4
SYMATTR Value 1µ
SYMBOL cap 624 304 R90
WINDOW 0 0 32 VBottom 2
WINDOW 3 32 32 VTop 2
SYMATTR InstName C5
SYMATTR Value 1µ
SYMBOL res 336 128 R0
SYMATTR InstName R9
SYMATTR Value 500
SYMBOL res 432 128 R0
SYMATTR InstName R10
SYMATTR Value 8k
SYMBOL res 528 128 R0
SYMATTR InstName R11
SYMATTR Value 8k
SYMBOL res 624 128 R0
SYMATTR InstName R12
SYMATTR Value 500
SYMBOL res 912 304 R90
WINDOW 0 0 56 VBottom 2
WINDOW 3 32 56 VTop 2
SYMATTR InstName R13
SYMATTR Value 5k
SYMBOL cap 912 400 R0
SYMATTR InstName C6
SYMATTR Value 1µ
TEXT 1744 392 Left 2 !.tran 50m
